@<TRIPOS>MOLECULE
C9H8O4
   21    21     1     0     0
SMALL
NO_CHARGES


@<TRIPOS>ATOM
      1 C1          3.5161    0.5890    0.0966 C.3       1 <1>         0.0000
      2 C2          2.0423    0.5991   -0.2177 C.2       1 <1>         0.0000
      3 O1          1.6698    0.6133   -1.3670 O.2       1 <1>         0.0000
      4 O2          1.1429    0.5923    0.7798 O.3       1 <1>         0.0000
      5 C3         -0.1637    0.7085    0.4320 C.ar      1 <1>         0.0000
      6 C4         -0.7675    1.9564    0.3998 C.ar      1 <1>         0.0000
      7 C5         -2.0971    2.0733    0.0458 C.ar      1 <1>         0.0000
      8 C6         -2.8373    0.9483   -0.2794 C.ar      1 <1>         0.0000
      9 C7         -2.2536   -0.2996   -0.2529 C.ar      1 <1>         0.0000
     10 C8         -0.9075   -0.4317    0.0980 C.ar      1 <1>         0.0000
     11 C9         -0.2762   -1.7639    0.1281 C.2       1 <1>         0.0000
     12 O3          0.8946   -1.8746    0.4337 O.2       1 <1>         0.0000
     13 O4         -0.9976   -2.8585   -0.1833 O.3       1 <1>         0.0000
     14 H1          4.0859    0.5965   -0.8326 H         1 <1>         0.0000
     15 H2          3.7683    1.4715    0.6846 H         1 <1>         0.0000
     16 H3          3.7602   -0.3084    0.6652 H         1 <1>         0.0000
     17 H4         -0.1972    2.8381    0.6524 H         1 <1>         0.0000
     18 H5         -2.5628    3.0474    0.0226 H         1 <1>         0.0000
     19 H6         -3.8767    1.0498   -0.5547 H         1 <1>         0.0000
     20 H7         -2.8344   -1.1739   -0.5071 H         1 <1>         0.0000
     21 H8         -0.5404   -3.7099   -0.1495 H         1 <1>         0.0000
@<TRIPOS>BOND
     1    1    2 1
     2    2    3 2
     3    2    4 1
     4    4    5 1
     5    5    6 ar
     6    6    7 ar
     7    7    8 ar
     8    8    9 ar
     9    9   10 ar
    10    5   10 ar
    11   10   11 1
    12   11   12 2
    13   11   13 1
    14    1   14 1
    15    1   15 1
    16    1   16 1
    17    6   17 1
    18    7   18 1
    19    8   19 1
    20    9   20 1
    21   13   21 1
