@<TRIPOS>MOLECULE
C8H5FN2O2
   18    18     1     0     0
SMALL
NO_CHARGES


@<TRIPOS>ATOM
      1 C1          0.8491    2.9932   -0.0019 C.3       1 <1>         0.0000
      2 C2          0.8733    1.4864   -0.0016 C.ar      1 <1>         0.0000
      3 C3          2.0775    0.8150   -0.0002 C.ar      1 <1>         0.0000
      4 C4          2.1012   -0.5710    0.0001 C.ar      1 <1>         0.0000
      5 F1          3.2840   -1.2238    0.0010 F         1 <1>         0.0000
      6 C5          0.9156   -1.2900   -0.0001 C.ar      1 <1>         0.0000
      7 C6         -0.2941   -0.6293   -0.0011 C.ar      1 <1>         0.0000
      8 N1         -1.5589   -1.3982   -0.0008 N.pl3     1 <1>         1.0000
      9 O1         -1.5313   -2.6158    0.0002 O.2       1 <1>         0.0000
     10 O2         -2.6272   -0.8131   -0.0017 O.3       1 <1>        -1.0000
     11 C7         -0.3241    0.7674    0.0031 C.ar      1 <1>         0.0000
     12 C8         -1.5778    1.4594    0.0021 C.1       1 <1>         0.0000
     13 N2         -2.5724    2.0083    0.0014 N.1       1 <1>         0.0000
     14 H1          0.8444    3.3564   -1.0297 H         1 <1>         0.0000
     15 H2         -0.0471    3.3423    0.5109 H         1 <1>         0.0000
     16 H3          1.7326    3.3709    0.5128 H         1 <1>         0.0000
     17 H4          3.0040    1.3699    0.0003 H         1 <1>         0.0000
     18 H5          0.9400   -2.3697    0.0001 H         1 <1>         0.0000
@<TRIPOS>BOND
     1    1    2 1
     2    2    3 ar
     3    3    4 ar
     4    4    5 1
     5    4    6 ar
     6    6    7 ar
     7    7    8 1
     8    8    9 2
     9    8   10 1
    10    7   11 ar
    11    2   11 ar
    12   11   12 1
    13   12   13 3
    14    1   14 1
    15    1   15 1
    16    1   16 1
    17    3   17 1
    18    6   18 1
