@<TRIPOS>MOLECULE
C20H22N4O5
   51    52     1     0     0
SMALL
NO_CHARGES


@<TRIPOS>ATOM
      1 C1         10.4318    0.5996   -0.0115 C.3       1 <1>         0.0000
      2 N1          9.0292    1.0223   -0.0308 N.am      1 <1>         0.0000
      3 C2          8.6943    2.4459   -0.1161 C.3       1 <1>         0.0000
      4 C3          8.0470    0.1014    0.0300 C.2       1 <1>         0.0000
      5 O1          8.3242   -1.0772    0.1006 O.2       1 <1>         0.0000
      6 C4          6.6042    0.5362    0.0101 C.3       1 <1>         0.0000
      7 O2          5.7455   -0.6322    0.0854 O.3       1 <1>         0.0000
      8 C5          4.4207   -0.4163    0.0784 C.2       1 <1>         0.0000
      9 O3          3.9928    0.7117    0.0115 O.2       1 <1>         0.0000
     10 C6          3.4670   -1.5808    0.1538 C.3       1 <1>         0.0000
     11 C7          2.0490   -1.0712    0.1293 C.ar      1 <1>         0.0000
     12 C8          1.3941   -0.9107   -1.0778 C.ar      1 <1>         0.0000
     13 C9          0.0944   -0.4434   -1.1030 C.ar      1 <1>         0.0000
     14 C10        -0.5539   -0.1353    0.0843 C.ar      1 <1>         0.0000
     15 O4         -1.8328    0.3243    0.0622 O.3       1 <1>         0.0000
     16 C11        -2.8005   -0.5720   -0.2162 C.2       1 <1>         0.0000
     17 O5         -2.5122   -1.7365   -0.4122 O.2       1 <1>         0.0000
     18 C12        -4.2062   -0.1405   -0.2829 C.ar      1 <1>         0.0000
     19 C13        -5.2113   -1.0714   -0.5721 C.ar      1 <1>         0.0000
     20 C14        -6.5140   -0.6714   -0.6340 C.ar      1 <1>         0.0000
     21 C15        -6.8459    0.6699   -0.4087 C.ar      1 <1>         0.0000
     22 N2         -8.1482    1.0697   -0.4710 N.2       1 <1>         0.0000
     23 C16        -9.0412    0.5297    0.3304 C.2       1 <1>         0.0000
     24 N3         -8.6428   -0.3311    1.3191 N.3       1 <1>         0.0000
     25 N4        -10.3695    0.8282    0.1761 N.3       1 <1>         0.0000
     26 C17        -5.8410    1.6006   -0.1191 C.ar      1 <1>         0.0000
     27 C18        -4.5389    1.1997   -0.0515 C.ar      1 <1>         0.0000
     28 C19         0.1054   -0.2976    1.2942 C.ar      1 <1>         0.0000
     29 C20         1.4033   -0.7702    1.3143 C.ar      1 <1>         0.0000
     30 H1         10.7844    0.5573    1.0190 H         1 <1>         0.0000
     31 H2         10.5202   -0.3870   -0.4665 H         1 <1>         0.0000
     32 H3         11.0343    1.3138   -0.5726 H         1 <1>         0.0000
     33 H4          9.6117    3.0332   -0.1561 H         1 <1>         0.0000
     34 H5          8.1069    2.6277   -1.0161 H         1 <1>         0.0000
     35 H6          8.1152    2.7361    0.7606 H         1 <1>         0.0000
     36 H7          6.4089    1.1862    0.8630 H         1 <1>         0.0000
     37 H8          6.4006    1.0779   -0.9136 H         1 <1>         0.0000
     38 H9          3.6309   -2.2404   -0.6983 H         1 <1>         0.0000
     39 H10         3.6391   -2.1320    1.0783 H         1 <1>         0.0000
     40 H11         1.8992   -1.1507   -2.0017 H         1 <1>         0.0000
     41 H12        -0.4165   -0.3176   -2.0462 H         1 <1>         0.0000
     42 H13        -4.9552   -2.1059   -0.7466 H         1 <1>         0.0000
     43 H14        -7.2893   -1.3895   -0.8570 H         1 <1>         0.0000
     44 H15        -7.6990   -0.4451    1.5116 H         1 <1>         0.0000
     45 H16        -9.3046   -0.8264    1.8266 H         1 <1>         0.0000
     46 H17       -10.6515    1.4376   -0.5239 H         1 <1>         0.0000
     47 H18       -11.0279    0.4301    0.7668 H         1 <1>         0.0000
     48 H19        -6.0971    2.6353    0.0547 H         1 <1>         0.0000
     49 H20        -3.7637    1.9176    0.1722 H         1 <1>         0.0000
     50 H21        -0.3971   -0.0584    2.2198 H         1 <1>         0.0000
     51 H22         1.9169   -0.8967    2.2559 H         1 <1>         0.0000
@<TRIPOS>BOND
     1    1    2 1
     2    2    3 1
     3    2    4 am
     4    4    5 2
     5    4    6 1
     6    6    7 1
     7    7    8 1
     8    8    9 2
     9    8   10 1
    10   10   11 1
    11   11   12 ar
    12   12   13 ar
    13   13   14 ar
    14   14   15 1
    15   15   16 1
    16   16   17 2
    17   16   18 1
    18   18   19 ar
    19   19   20 ar
    20   20   21 ar
    21   21   22 1
    22   22   23 2
    23   23   24 1
    24   23   25 1
    25   21   26 ar
    26   26   27 ar
    27   18   27 ar
    28   14   28 ar
    29   28   29 ar
    30   11   29 ar
    31    1   30 1
    32    1   31 1
    33    1   32 1
    34    3   33 1
    35    3   34 1
    36    3   35 1
    37    6   36 1
    38    6   37 1
    39   10   38 1
    40   10   39 1
    41   12   40 1
    42   13   41 1
    43   19   42 1
    44   20   43 1
    45   24   44 1
    46   24   45 1
    47   25   46 1
    48   25   47 1
    49   26   48 1
    50   27   49 1
    51   28   50 1
    52   29   51 1
