@<TRIPOS>MOLECULE
C14H14N4O2S
   35    37     1     0     0
SMALL
NO_CHARGES


@<TRIPOS>ATOM
      1 C1          5.0964   -0.2879   -0.0762 C.3       1 <1>         0.0000
      2 N1          3.6325   -0.3208   -0.0301 N.am      1 <1>         0.0000
      3 C2          2.9415    0.8378   -0.0395 C.2       1 <1>         0.0000
      4 O1          3.5288    1.9047   -0.0859 O.2       1 <1>         0.0000
      5 C3          1.5367    0.8016    0.0044 C.2       1 <1>         0.0000
      6 C4          0.8903   -0.4291    0.0565 C.2       1 <1>         0.0000
      7 N2         -0.4217   -0.1939    0.0897 N.2       1 <1>         0.0000
      8 C5         -0.6473    1.1046    0.0620 C.2       1 <1>         0.0000
      9 S1         -2.2374    1.8631    0.0906 S.3       1 <1>         0.0000
     10 C6         -3.2609    0.4315    0.0047 C.ar      1 <1>         0.0000
     11 C7         -3.7580   -0.1399    1.1695 C.ar      1 <1>         0.0000
     12 C8         -4.5602   -1.2616    1.0986 C.ar      1 <1>         0.0000
     13 C9         -4.8691   -1.8162   -0.1301 C.ar      1 <1>         0.0000
     14 C10        -4.3760   -1.2500   -1.2916 C.ar      1 <1>         0.0000
     15 C11        -3.5775   -0.1252   -1.2282 C.ar      1 <1>         0.0000
     16 N3          0.5396    1.7675    0.0088 N.pl3     1 <1>         0.0000
     17 C12         0.7287    3.2196   -0.0359 C.3       1 <1>         0.0000
     18 N4          1.6551   -1.5849    0.0635 N.am      1 <1>         0.0000
     19 C13         1.0013   -2.8948    0.1175 C.3       1 <1>         0.0000
     20 C14         2.9982   -1.5050    0.0153 C.2       1 <1>         0.0000
     21 O2          3.6539   -2.5291    0.0218 O.2       1 <1>         0.0000
     22 H1          5.4912   -0.2526    0.9392 H         1 <1>         0.0000
     23 H2          5.4643   -1.1828   -0.5781 H         1 <1>         0.0000
     24 H3          5.4230    0.5961   -0.6240 H         1 <1>         0.0000
     25 H4         -3.5169    0.2925    2.1294 H         1 <1>         0.0000
     26 H5         -4.9467   -1.7065    2.0036 H         1 <1>         0.0000
     27 H6         -5.4965   -2.6937   -0.1827 H         1 <1>         0.0000
     28 H7         -4.6191   -1.6856   -2.2494 H         1 <1>         0.0000
     29 H8         -3.1927    0.3165   -2.1356 H         1 <1>         0.0000
     30 H9          0.8059    3.6073    0.9798 H         1 <1>         0.0000
     31 H10         1.6426    3.4502   -0.5833 H         1 <1>         0.0000
     32 H11        -0.1216    3.6815   -0.5375 H         1 <1>         0.0000
     33 H12         0.8081   -3.2465   -0.8960 H         1 <1>         0.0000
     34 H13         1.6506   -3.6041    0.6306 H         1 <1>         0.0000
     35 H14         0.0587   -2.8084    0.6580 H         1 <1>         0.0000
@<TRIPOS>BOND
     1    1    2 1
     2    2    3 2
     3    3    4 2
     4    3    5 1
     5    5    6 2
     6    6    7 1
     7    7    8 2
     8    8    9 1
     9    9   10 1
    10   10   11 2
    11   11   12 1
    12   12   13 2
    13   13   14 1
    14   14   15 2
    15   10   15 1
    16    8   16 1
    17    5   16 1
    18   16   17 1
    19    6   18 1
    20   18   19 1
    21   18   20 2
    22    2   20 2
    23   20   21 2
    24    1   22 1
    25    1   23 1
    26    1   24 1
    27   11   25 1
    28   12   26 1
    29   13   27 1
    30   14   28 1
    31   15   29 1
    32   17   30 1
    33   17   31 1
    34   17   32 1
    35   19   33 1
    36   19   34 1
    37   19   35 1
